@<TRIPOS>MOLECULE
JZ4
   22    22     1     0     0
SMALL
bcc


@<TRIPOS>ATOM
      1 C1          24.2940   -24.1240    -0.0710 c3       167 JZ4      -0.092100
      2 C2          21.5530   -27.2140    -4.1120 ca       167 JZ4      -0.162000
      3 C3          22.0680   -26.7470    -5.3310 ca       167 JZ4      -0.096000
      4 C4          22.6710   -25.5120    -5.4480 ca       167 JZ4      -0.211000
      5 C5          22.7690   -24.7300    -4.2950 ca       167 JZ4       0.123100
      6 C6          21.6930   -26.4590    -2.9540 ca       167 JZ4      -0.098000
      7 C7          22.2940   -25.1870    -3.0750 ca       167 JZ4      -0.099300
      8 C8          22.4630   -24.4140    -1.8080 c3       167 JZ4      -0.027100
      9 C9          23.9250   -24.7040    -1.3940 c3       167 JZ4      -0.076400
     10 O1          23.4120   -23.5360    -4.3420 oh       167 JZ4      -0.498100
     11 H1          25.3130   -24.3620     0.1510 hc       167 JZ4       0.032033
     12 H2          23.6590   -24.5330     0.6870 hc       167 JZ4       0.032033
     13 H3          24.1740   -23.0610    -0.1020 hc       167 JZ4       0.032033
     14 H4          21.0670   -28.1240    -4.0750 ha       167 JZ4       0.133000
     15 H5          21.9930   -27.3470    -6.1670 ha       167 JZ4       0.132000
     16 H6          23.0360   -25.1780    -6.3540 ha       167 JZ4       0.132000
     17 H7          21.3700   -26.8140    -2.0400 ha       167 JZ4       0.134000
     18 H8          21.7790   -24.7550    -1.0590 hc       167 JZ4       0.051200
     19 H9          22.2660   -23.3690    -1.9300 hc       167 JZ4       0.051200
     20 H10         24.5760   -24.2930    -2.1370 hc       167 JZ4       0.045200
     21 H11         24.0240   -25.7660    -1.3110 hc       167 JZ4       0.045200
     22 H12         23.7390   -23.2120    -5.1580 ho       167 JZ4       0.417000
@<TRIPOS>BOND
     1     1     9 1   
     2     1    11 1   
     3     1    12 1   
     4     1    13 1   
     5     2     3 ar  
     6     2     6 ar  
     7     2    14 1   
     8     3     4 ar  
     9     3    15 1   
    10     4     5 ar  
    11     4    16 1   
    12     5     7 ar  
    13     5    10 1   
    14     6     7 ar  
    15     6    17 1   
    16     7     8 1   
    17     8     9 1   
    18     8    18 1   
    19     8    19 1   
    20     9    20 1   
    21     9    21 1   
    22    10    22 1   
@<TRIPOS>SUBSTRUCTURE
     1 JZ4         1 TEMP              0 ****  ****    0 ROOT
